Cenario_3/Tabelas_03/SE_Curr_Elem.Txt

CIRCUIT ELEMENT CURRENTS

(Currents into element from indicated bus)

Power Delivery Elements

  Bus     Phase    Magnitude, A     Angle      (Real)   +j  (Imag)

ELEMENT = "Vsource.SOURCE"
99            1           60.643 /_   93.2 =    -3.3595 +j     60.55
99            2           60.643 /_  -26.8 =     54.118 +j   -27.366
99            3           60.643 /_ -146.8 =    -50.758 +j   -33.184
------------
99            0           60.643 /_  -86.8 =     3.3595 +j    -60.55
99            0           60.643 /_  153.2 =    -54.118 +j    27.366
99            0           60.643 /_   33.2 =     50.758 +j    33.184

ELEMENT = "Line.TRECHO_99-1"
99            1           60.643 /_  -86.8 =     3.3595 +j    -60.55
99            2           60.643 /_  153.2 =    -54.118 +j    27.366
99            3           60.643 /_   33.2 =     50.758 +j    33.184
------------
1             1           60.643 /_   93.2 =    -3.3595 +j     60.55
1             2           60.643 /_  -26.8 =     54.118 +j   -27.366
1             3           60.643 /_ -146.8 =    -50.758 +j   -33.184

ELEMENT = "Line.TRECHO_1-2"
1             1           50.787 /_ -126.2 =    -29.977 +j   -40.997
1             2           50.787 /_  113.8 =    -20.516 +j    46.459
1             3           50.787 /_   -6.2 =     50.493 +j   -5.4622
------------
2             1           50.787 /_   53.8 =     29.977 +j    40.997
2             2           50.787 /_  -66.2 =     20.516 +j   -46.459
2             3           50.787 /_  173.8 =    -50.493 +j    5.4622

ELEMENT = "Line.TRECHO_2-6"
2             1           19.318 /_  -25.1 =     17.494 +j   -8.1956
2             2           19.318 /_ -145.1 =    -15.844 +j   -11.052
2             3           19.318 /_   94.9 =    -1.6492 +j    19.248
------------
6             1           19.318 /_  154.9 =    -17.494 +j    8.1956
6             2           19.318 /_   34.9 =     15.844 +j    11.052
6             3           19.318 /_  -85.1 =     1.6492 +j   -19.248

ELEMENT = "Line.TRECHO_6-7"
6             1           8.2796 /_  -25.1 =     7.4976 +j   -3.5125
6             2           8.2796 /_ -145.1 =    -6.7907 +j   -4.7369
6             3           8.2796 /_   94.9 =   -0.70691 +j    8.2494
------------
7             1           8.2796 /_  154.9 =    -7.4976 +j    3.5125
7             2           8.2796 /_   34.9 =     6.7907 +j    4.7369
7             3           8.2796 /_  -85.1 =    0.70691 +j   -8.2494

ELEMENT = "Line.TRECHO_1-5"
1             1           20.403 /_  -35.1 =     16.684 +j   -11.745
1             2           20.403 /_ -155.1 =    -18.513 +j   -8.5759
1             3           20.403 /_   84.9 =     1.8298 +j    20.321
------------
5             1           20.403 /_  144.9 =    -16.684 +j    11.745
5             2           20.403 /_   24.9 =     18.513 +j    8.5759
5             3           20.403 /_  -95.1 =    -1.8298 +j   -20.321

ELEMENT = "Line.TRECHO_2-3"
2             1           68.827 /_ -158.7 =    -64.127 +j   -24.998
2             2           68.827 /_   81.3 =     10.415 +j    68.034
2             3           68.827 /_  -38.7 =     53.712 +j   -43.037
------------
3             1           68.827 /_   21.3 =     64.127 +j    24.998
3             2           68.827 /_  -98.7 =    -10.415 +j   -68.034
3             3           68.827 /_  141.3 =    -53.712 +j    43.037

ELEMENT = "Line.TRECHO_3-4"
3             1           90.098 /_ -171.5 =    -89.112 +j   -13.295
3             2           90.098 /_   68.5 =     33.042 +j    83.821
3             3           90.098 /_  -51.5 =      56.07 +j   -70.525
------------
4             1           90.098 /_    8.5 =     89.112 +j    13.295
4             2           90.098 /_ -111.5 =    -33.042 +j   -83.821
4             3           90.098 /_  128.5 =     -56.07 +j    70.525

ELEMENT = "Transformer.TR1"
1             1           18.392 /_  -25.1 =     16.653 +j   -7.8077
1             2           18.392 /_ -145.1 =    -15.088 +j   -10.518
1             3           18.392 /_   94.9 =    -1.5647 +j    18.326
1             0                0 /_    0.0 =          0 +j         0
------------
BT-TR1        1           667.93 /_  124.9 =    -381.96 +j    547.93
BT-TR1        2           667.93 /_    4.9 =      665.5 +j    56.824
BT-TR1        3           667.93 /_ -115.1 =    -283.54 +j   -604.76
BT-TR1        0      1.3642E-007 /_  -58.5 =  7.1328E-008 +j -1.1629E-007

ELEMENT = "Transformer.TR2"
2             1           18.394 /_  -25.1 =     16.657 +j   -7.8038
2             2           18.394 /_ -145.1 =    -15.087 +j   -10.523
2             3           18.394 /_   94.9 =      -1.57 +j    18.327
2             0                0 /_    0.0 =          0 +j         0
------------
BT-TR2        1           667.99 /_  124.9 =    -382.15 +j    547.88
BT-TR2        2           667.99 /_    4.9 =     665.55 +j    57.016
BT-TR2        3           667.99 /_ -115.1 =     -283.4 +j   -604.89
BT-TR2        0       1.365E-007 /_  -58.5 =  7.1372E-008 +j -1.1635E-007

ELEMENT = "Transformer.TR3"
3             1            27.59 /_  -25.1 =     24.985 +j   -11.702
3             2            27.59 /_ -145.1 =    -22.627 +j   -15.786
3             3            27.59 /_   94.9 =    -2.3578 +j    27.489
3             0                0 /_    0.0 =          0 +j         0
------------
BT-TR3        1           1001.9 /_  124.9 =    -573.29 +j    821.71
BT-TR3        2           1001.9 /_    4.9 =     998.27 +j    85.625
BT-TR3        3           1001.9 /_ -115.1 =    -424.98 +j   -907.34
BT-TR3        0      2.0475E-007 /_  -58.5 =  1.0708E-007 +j -1.7452E-007

ELEMENT = "Transformer.TR4"
4             1           18.389 /_  -25.1 =     16.655 +j   -7.7968
4             2           18.389 /_ -145.1 =     -15.08 +j   -10.525
4             3           18.389 /_   94.9 =    -1.5751 +j    18.322
4             0                0 /_    0.0 =          0 +j         0
------------
BT-TR4        1           667.83 /_  124.9 =    -382.23 +j    547.63
BT-TR4        2           667.83 /_    4.9 =     665.37 +j    57.203
BT-TR4        3           667.83 /_ -115.1 =    -283.15 +j   -604.83
BT-TR4        0      1.3648E-007 /_  -58.5 =  7.1401E-008 +j -1.1632E-007

ELEMENT = "Transformer.TR5"
5             1           27.594 /_  -25.1 =     24.985 +j   -11.713
5             2           27.594 /_ -145.1 =    -22.636 +j   -15.781
5             3           27.594 /_   94.9 =    -2.3488 +j    27.494
5             0                0 /_    0.0 =          0 +j         0
------------
BT-TR5        1           1002.1 /_  124.9 =     -573.1 +j    822.04
BT-TR5        2           1002.1 /_    4.9 =     998.46 +j      85.3
BT-TR5        3           1002.1 /_ -115.1 =    -425.36 +j   -907.34
BT-TR5        0      2.0474E-007 /_  -58.5 =  1.0706E-007 +j -1.7451E-007

ELEMENT = "Transformer.TR6"
6             1           11.039 /_  -25.1 =      9.996 +j   -4.6831
6             2           11.039 /_ -145.1 =    -9.0537 +j   -6.3152
6             3           11.039 /_   94.9 =   -0.94228 +j    10.998
6             0                0 /_    0.0 =          0 +j         0
------------
BT-TR6        1           400.88 /_  124.9 =    -229.34 +j    328.79
BT-TR6        2           400.88 /_    4.9 =     399.41 +j     34.22
BT-TR6        3           400.88 /_ -115.1 =    -170.07 +j   -363.01
BT-TR6        0      8.1933E-008 /_  -58.5 =  4.2844E-008 +j -6.9839E-008

ELEMENT = "Transformer.TR7"
7             1           8.2796 /_  -25.1 =     7.4976 +j   -3.5125
7             2           8.2796 /_ -145.1 =    -6.7907 +j   -4.7369
7             3           8.2796 /_   94.9 =   -0.70691 +j    8.2494
7             0                0 /_    0.0 =          0 +j         0
------------
BT-TR7        1           300.68 /_  124.9 =    -172.02 +j    246.61
BT-TR7        2           300.68 /_    4.9 =     299.58 +j    25.672
BT-TR7        3           300.68 /_ -115.1 =    -127.56 +j   -272.28
BT-TR7        0      6.1458E-008 /_  -58.5 =  3.2139E-008 +j -5.2386E-008

ELEMENT = "Transformer.TR_AC1"
TR_ACOPL1     1           3846.2 /_    3.0 =       3841 +j    199.67
TR_ACOPL1     2           3846.2 /_ -117.0 =    -1747.6 +j   -3426.2
TR_ACOPL1     3           3846.2 /_  123.0 =    -2093.4 +j    3226.6
TR_ACOPL1     0      7.6952E-007 /_ -118.2 =  -3.631E-007 +j -6.7847E-007
------------
4             1           105.91 /_ -177.0 =    -105.77 +j   -5.4983
4             2           105.91 /_   63.0 =     48.122 +j    94.346
4             3           105.91 /_  -57.0 =     57.645 +j   -88.847
4             0       2.119E-008 /_   61.8 =  9.9985E-009 +j 1.8683E-008

= = = = = = = = = = = = = = = = = = =  = = = = = = = = = = =  = =

Power Conversion Elements

  Bus     Phase    Magnitude, A     Angle      (Real)   +j  (Imag)

ELEMENT = "Load.LOAD_TR1"
BT-TR1        1           667.92 /_  -55.1 =     381.95 +j   -547.93
BT-TR1        2           667.92 /_ -175.1 =     -665.5 +j   -56.815
BT-TR1        3           667.92 /_   64.9 =     283.55 +j    604.75
BT-TR1        0      1.3642E-007 /_  121.5 =  -7.1321E-008 +j 1.1629E-007

ELEMENT = "Load.LOAD_TR2"
BT-TR2        1           667.98 /_  -55.1 =     382.14 +j   -547.88
BT-TR2        2           667.98 /_ -175.1 =    -665.55 +j   -57.007
BT-TR2        3           667.98 /_   64.9 =      283.4 +j    604.88
BT-TR2        0       1.365E-007 /_  121.5 =  -7.1369E-008 +j 1.1635E-007

ELEMENT = "Load.LOAD_TR3"
BT-TR3        1           1001.9 /_  -55.1 =     573.27 +j   -821.71
BT-TR3        2           1001.9 /_ -175.1 =    -998.26 +j   -85.612
BT-TR3        3           1001.9 /_   64.9 =     424.99 +j    907.32
BT-TR3        0      2.0475E-007 /_  121.5 =  -1.0707E-007 +j 1.7452E-007

ELEMENT = "Load.LOAD_TR4"
BT-TR4        1           667.82 /_  -55.1 =     382.22 +j   -547.63
BT-TR4        2           667.82 /_ -175.1 =    -665.37 +j   -57.194
BT-TR4        3           667.82 /_   64.9 =     283.15 +j    604.82
BT-TR4        0      1.3648E-007 /_  121.5 =  -7.1397E-008 +j 1.1632E-007

ELEMENT = "Load.LOAD_TR5"
BT-TR5        1           1002.1 /_  -55.1 =     573.09 +j   -822.04
BT-TR5        2           1002.1 /_ -175.1 =    -998.45 +j   -85.287
BT-TR5        3           1002.1 /_   64.9 =     425.36 +j    907.33
BT-TR5        0      2.0473E-007 /_  121.5 =  -1.0705E-007 +j 1.7451E-007

ELEMENT = "Load.LOAD_TR6"
BT-TR6        1           400.87 /_  -55.1 =     229.34 +j   -328.79
BT-TR6        2           400.87 /_ -175.1 =    -399.41 +j   -34.215
BT-TR6        3           400.87 /_   64.9 =     170.07 +j    363.01
BT-TR6        0      8.1932E-008 /_  121.5 =  -4.2841E-008 +j 6.9839E-008

ELEMENT = "Load.LOAD_TR7"
BT-TR7        1           300.68 /_  -55.1 =     172.02 +j   -246.61
BT-TR7        2           300.68 /_ -175.1 =    -299.58 +j   -25.668
BT-TR7        3           300.68 /_   64.9 =     127.56 +j    272.28
BT-TR7        0      6.1458E-008 /_  121.5 =  -3.2138E-008 +j 5.2386E-008

ELEMENT = "PVSystem.SFV_1"
TR_ACOPL1     1           3846.2 /_ -177.0 =      -3841 +j   -199.67
TR_ACOPL1     2           3846.2 /_   63.0 =     1747.6 +j    3426.2
TR_ACOPL1     3           3846.2 /_  -57.0 =     2093.4 +j   -3226.6
TR_ACOPL1     0      7.6952E-007 /_   61.8 =  3.6311E-007 +j 6.7847E-007

ELEMENT = "Generator.SFV_EXIST"
5             1           8.3012 /_ -179.8 =    -8.3011 +j -0.032416
5             2           8.3012 /_   60.2 =     4.1225 +j    7.2052
5             3           8.3012 /_  -59.8 =     4.1786 +j   -7.1728
5             0       1.656E-009 /_   59.1 =  8.4948E-010 +j 1.4215E-009

