Cenario_3/Tabelas_03/SE_Power_elem_kVA.txt

CIRCUIT ELEMENT POWER FLOW

(Power Flow into element from indicated Bus)

Power Delivery Elements

  Bus     Phase     kW     +j   kvar         kVA         PF

ELEMENT = "Vsource.SOURCE"
99            1       -24.7 +j   -476.8      477.5       0.0517
99            2       -24.7 +j   -476.8      477.5       0.0517
99            3       -24.7 +j   -476.8      477.5       0.0517
   TERMINAL TOTAL .   -74.0 +j  -1430.5     1432.4       0.0517
99            0         0.0 +j      0.0        0.0       1.0000
99            0         0.0 +j      0.0        0.0       1.0000
99            0         0.0 +j      0.0        0.0       1.0000
   TERMINAL TOTAL .     0.0 +j      0.0        0.0       1.0000

ELEMENT = "Line.TRECHO_99-1"
99            1        24.7 +j    476.8      477.5       0.0517
99            2        24.7 +j    476.8      477.5       0.0517
99            3        24.7 +j    476.8      477.5       0.0517
   TERMINAL TOTAL .    74.0 +j   1430.5     1432.4       0.0517
1             1       -24.6 +j   -476.7      477.4       0.0516
1             2       -24.6 +j   -476.7      477.4       0.0516
1             3       -24.6 +j   -476.7      477.4       0.0516
   TERMINAL TOTAL .   -73.8 +j  -1430.2     1432.1       0.0516

ELEMENT = "Line.TRECHO_1-2"
1             1      -237.2 +j    321.8      399.8      -0.5933
1             2      -237.2 +j    321.8      399.8      -0.5933
1             3      -237.2 +j    321.8      399.8      -0.5933
   TERMINAL TOTAL .  -711.7 +j    965.5     1199.4      -0.5933
2             1       237.3 +j   -321.7      399.8      -0.5936
2             2       237.3 +j   -321.7      399.8      -0.5936
2             3       237.3 +j   -321.7      399.8      -0.5936
   TERMINAL TOTAL .   711.9 +j   -965.2     1199.3      -0.5936

ELEMENT = "Line.TRECHO_2-6"
2             1       137.4 +j     65.1      152.1       0.9038
2             2       137.4 +j     65.1      152.1       0.9038
2             3       137.4 +j     65.1      152.1       0.9038
   TERMINAL TOTAL .   412.3 +j    195.2      456.2       0.9038
6             1      -137.4 +j    -65.1      152.0       0.9038
6             2      -137.4 +j    -65.1      152.0       0.9038
6             3      -137.4 +j    -65.1      152.0       0.9038
   TERMINAL TOTAL .  -412.2 +j   -195.2      456.1       0.9038

ELEMENT = "Line.TRECHO_6-7"
6             1        58.9 +j     27.9       65.2       0.9038
6             2        58.9 +j     27.9       65.2       0.9038
6             3        58.9 +j     27.9       65.2       0.9038
   TERMINAL TOTAL .   176.7 +j     83.7      195.5       0.9038
7             1       -58.9 +j    -27.9       65.2       0.9038
7             2       -58.9 +j    -27.9       65.2       0.9038
7             3       -58.9 +j    -27.9       65.2       0.9038
   TERMINAL TOTAL .  -176.7 +j    -83.7      195.5       0.9038

ELEMENT = "Line.TRECHO_1-5"
1             1       131.0 +j     93.0      160.6       0.8155
1             2       131.0 +j     93.0      160.6       0.8155
1             3       131.0 +j     93.0      160.6       0.8155
   TERMINAL TOTAL .   392.9 +j    278.9      481.8       0.8155
5             1      -130.9 +j    -93.0      160.6       0.8154
5             2      -130.9 +j    -93.0      160.6       0.8154
5             3      -130.9 +j    -93.0      160.6       0.8154
   TERMINAL TOTAL .  -392.8 +j   -278.9      481.7       0.8154

ELEMENT = "Line.TRECHO_2-3"
2             1      -505.6 +j    194.7      541.8      -0.9332
2             2      -505.6 +j    194.7      541.8      -0.9332
2             3      -505.6 +j    194.7      541.8      -0.9332
   TERMINAL TOTAL . -1516.7 +j    584.0     1625.3      -0.9332
3             1       505.6 +j   -194.6      541.8      -0.9332
3             2       505.6 +j   -194.6      541.8      -0.9332
3             3       505.6 +j   -194.6      541.8      -0.9332
   TERMINAL TOTAL .  1516.8 +j   -583.9     1625.3      -0.9332

ELEMENT = "Line.TRECHO_3-4"
3             1      -701.9 +j    101.7      709.2      -0.9897
3             2      -701.9 +j    101.7      709.2      -0.9897
3             3      -701.9 +j    101.7      709.2      -0.9897
   TERMINAL TOTAL . -2105.7 +j    305.0     2127.7      -0.9897
4             1       702.0 +j   -101.6      709.4      -0.9897
4             2       702.0 +j   -101.6      709.4      -0.9897
4             3       702.0 +j   -101.6      709.4      -0.9897
   TERMINAL TOTAL .  2106.1 +j   -304.7     2128.1      -0.9897

ELEMENT = "Transformer.TR1"
1             1       130.9 +j     62.0      144.8       0.9038
1             2       130.9 +j     62.0      144.8       0.9038
1             3       130.9 +j     62.0      144.8       0.9038
1             0         0.0 +j      0.0        0.0       1.0000
   TERMINAL TOTAL .   392.6 +j    185.9      434.3       0.9038
BT-TR1        1      -130.3 +j    -55.5      141.7       0.9200
BT-TR1        2      -130.3 +j    -55.5      141.7       0.9200
BT-TR1        3      -130.3 +j    -55.5      141.7       0.9200
BT-TR1        0         0.0 +j      0.0        0.0       1.0000
   TERMINAL TOTAL .  -391.0 +j   -166.6      425.0       0.9200

ELEMENT = "Transformer.TR2"
2             1       130.9 +j     62.0      144.8       0.9038
2             2       130.9 +j     62.0      144.8       0.9038
2             3       130.9 +j     62.0      144.8       0.9038
2             0         0.0 +j      0.0        0.0       1.0000
   TERMINAL TOTAL .   392.6 +j    185.9      434.4       0.9038
BT-TR2        1      -130.3 +j    -55.5      141.7       0.9200
BT-TR2        2      -130.3 +j    -55.5      141.7       0.9200
BT-TR2        3      -130.3 +j    -55.5      141.7       0.9200
BT-TR2        0         0.0 +j      0.0        0.0       1.0000
   TERMINAL TOTAL .  -391.0 +j   -166.6      425.0       0.9200

ELEMENT = "Transformer.TR3"
3             1       196.3 +j     93.0      217.2       0.9038
3             2       196.3 +j     93.0      217.2       0.9038
3             3       196.3 +j     93.0      217.2       0.9038
3             0         0.0 +j      0.0        0.0       1.0000
   TERMINAL TOTAL .   588.8 +j    278.9      651.5       0.9038
BT-TR3        1      -195.5 +j    -83.3      212.5       0.9200
BT-TR3        2      -195.5 +j    -83.3      212.5       0.9200
BT-TR3        3      -195.5 +j    -83.3      212.5       0.9200
BT-TR3        0         0.0 +j      0.0        0.0       1.0000
   TERMINAL TOTAL .  -586.5 +j   -249.9      637.5       0.9200

ELEMENT = "Transformer.TR4"
4             1       130.9 +j     62.0      144.8       0.9038
4             2       130.9 +j     62.0      144.8       0.9038
4             3       130.9 +j     62.0      144.8       0.9038
4             0         0.0 +j      0.0        0.0       1.0000
   TERMINAL TOTAL .   392.6 +j    185.9      434.3       0.9038
BT-TR4        1      -130.3 +j    -55.5      141.7       0.9200
BT-TR4        2      -130.3 +j    -55.5      141.7       0.9200
BT-TR4        3      -130.3 +j    -55.5      141.7       0.9200
BT-TR4        0         0.0 +j      0.0        0.0       1.0000
   TERMINAL TOTAL .  -391.0 +j   -166.6      425.0       0.9200

ELEMENT = "Transformer.TR5"
5             1       196.3 +j     93.0      217.2       0.9038
5             2       196.3 +j     93.0      217.2       0.9038
5             3       196.3 +j     93.0      217.2       0.9038
5             0         0.0 +j      0.0        0.0       1.0000
   TERMINAL TOTAL .   588.8 +j    278.9      651.5       0.9038
BT-TR5        1      -195.5 +j    -83.3      212.5       0.9200
BT-TR5        2      -195.5 +j    -83.3      212.5       0.9200
BT-TR5        3      -195.5 +j    -83.3      212.5       0.9200
BT-TR5        0         0.0 +j      0.0        0.0       1.0000
   TERMINAL TOTAL .  -586.5 +j   -249.9      637.5       0.9200

ELEMENT = "Transformer.TR6"
6             1        78.5 +j     37.2       86.9       0.9038
6             2        78.5 +j     37.2       86.9       0.9038
6             3        78.5 +j     37.2       86.9       0.9038
6             0         0.0 +j      0.0        0.0       1.0000
   TERMINAL TOTAL .   235.5 +j    111.5      260.6       0.9038
BT-TR6        1       -78.2 +j    -33.3       85.0       0.9200
BT-TR6        2       -78.2 +j    -33.3       85.0       0.9200
BT-TR6        3       -78.2 +j    -33.3       85.0       0.9200
BT-TR6        0         0.0 +j      0.0        0.0       1.0000
   TERMINAL TOTAL .  -234.6 +j    -99.9      255.0       0.9200

ELEMENT = "Transformer.TR7"
7             1        58.9 +j     27.9       65.2       0.9038
7             2        58.9 +j     27.9       65.2       0.9038
7             3        58.9 +j     27.9       65.2       0.9038
7             0         0.0 +j      0.0        0.0       1.0000
   TERMINAL TOTAL .   176.7 +j     83.7      195.5       0.9038
BT-TR7        1       -58.7 +j    -25.0       63.8       0.9200
BT-TR7        2       -58.7 +j    -25.0       63.8       0.9200
BT-TR7        3       -58.7 +j    -25.0       63.8       0.9200
BT-TR7        0         0.0 +j      0.0        0.0       1.0000
   TERMINAL TOTAL .  -176.0 +j    -75.0      191.3       0.9200

ELEMENT = "Transformer.TR_AC1"
TR_ACOPL1     1       835.6 +j      0.0      835.6       1.0000
TR_ACOPL1     2       835.6 +j      0.0      835.6       1.0000
TR_ACOPL1     3       835.6 +j      0.0      835.6       1.0000
TR_ACOPL1     0         0.0 +j      0.0        0.0       1.0000
   TERMINAL TOTAL .  2506.9 +j      0.1     2506.9       1.0000
4             1      -832.9 +j     39.6      833.8      -0.9989
4             2      -832.9 +j     39.6      833.8      -0.9989
4             3      -832.9 +j     39.6      833.8      -0.9989
4             0         0.0 +j      0.0        0.0       1.0000
   TERMINAL TOTAL . -2498.7 +j    118.8     2501.5      -0.9989

= = = = = = = = = = = = = = = = = = =  = = = = = = = = = = =  = =

Power Conversion Elements

  Bus     Phase     kW   +j  kvar         kVA         PF

ELEMENT = "Load.LOAD_TR1"
BT-TR1        1     130.3 +j   55.5      141.7       0.9200
BT-TR1        2     130.3 +j   55.5      141.7       0.9200
BT-TR1        3     130.3 +j   55.5      141.7       0.9200
BT-TR1        0       0.0 +j    0.0        0.0       1.0000
  TERMINAL TOTAL  .   391.0 +j    166.6      425.0       0.9200

ELEMENT = "Load.LOAD_TR2"
BT-TR2        1     130.3 +j   55.5      141.7       0.9200
BT-TR2        2     130.3 +j   55.5      141.7       0.9200
BT-TR2        3     130.3 +j   55.5      141.7       0.9200
BT-TR2        0       0.0 +j    0.0        0.0       1.0000
  TERMINAL TOTAL  .   391.0 +j    166.6      425.0       0.9200

ELEMENT = "Load.LOAD_TR3"
BT-TR3        1     195.5 +j   83.3      212.5       0.9200
BT-TR3        2     195.5 +j   83.3      212.5       0.9200
BT-TR3        3     195.5 +j   83.3      212.5       0.9200
BT-TR3        0       0.0 +j    0.0        0.0       1.0000
  TERMINAL TOTAL  .   586.5 +j    249.9      637.5       0.9200

ELEMENT = "Load.LOAD_TR4"
BT-TR4        1     130.3 +j   55.5      141.7       0.9200
BT-TR4        2     130.3 +j   55.5      141.7       0.9200
BT-TR4        3     130.3 +j   55.5      141.7       0.9200
BT-TR4        0       0.0 +j    0.0        0.0       1.0000
  TERMINAL TOTAL  .   391.0 +j    166.6      425.0       0.9200

ELEMENT = "Load.LOAD_TR5"
BT-TR5        1     195.5 +j   83.3      212.5       0.9200
BT-TR5        2     195.5 +j   83.3      212.5       0.9200
BT-TR5        3     195.5 +j   83.3      212.5       0.9200
BT-TR5        0       0.0 +j    0.0        0.0       1.0000
  TERMINAL TOTAL  .   586.5 +j    249.9      637.5       0.9200

ELEMENT = "Load.LOAD_TR6"
BT-TR6        1      78.2 +j   33.3       85.0       0.9200
BT-TR6        2      78.2 +j   33.3       85.0       0.9200
BT-TR6        3      78.2 +j   33.3       85.0       0.9200
BT-TR6        0       0.0 +j    0.0        0.0       1.0000
  TERMINAL TOTAL  .   234.6 +j     99.9      255.0       0.9200

ELEMENT = "Load.LOAD_TR7"
BT-TR7        1      58.7 +j   25.0       63.8       0.9200
BT-TR7        2      58.7 +j   25.0       63.8       0.9200
BT-TR7        3      58.7 +j   25.0       63.8       0.9200
BT-TR7        0       0.0 +j    0.0        0.0       1.0000
  TERMINAL TOTAL  .   176.0 +j     75.0      191.3       0.9200

ELEMENT = "PVSystem.SFV_1"
TR_ACOPL1     1    -835.6 +j   -0.0      835.6       1.0000
TR_ACOPL1     2    -835.6 +j   -0.0      835.6       1.0000
TR_ACOPL1     3    -835.6 +j   -0.0      835.6       1.0000
TR_ACOPL1     0       0.0 +j    0.0        0.0       1.0000
  TERMINAL TOTAL  . -2506.9 +j     -0.1     2506.9       1.0000

ELEMENT = "Generator.SFV_EXIST"
5             1     -65.3 +j   -0.0       65.3       1.0000
5             2     -65.3 +j   -0.0       65.3       1.0000
5             3     -65.3 +j   -0.0       65.3       1.0000
5             0       0.0 +j    0.0        0.0       1.0000
  TERMINAL TOTAL  .  -196.0 +j     -0.0      196.0       1.0000


Total Circuit Losses =   20.3 +j  256.2
