Cenario_3/Tabelas_03/SE_VLN_Node.Txt

LINE-GROUND and LINE-LINE VOLTAGES BY BUS & NODE

Bus       Node    VLN (kV)   Angle      pu     Base kV    Node-Node   VLL (kV)  Angle      pu

99 ...... 1       7.8733 /_    0.2   0.98819    13.800        1-2     13.637 /_   30.2   0.98819
   -      2       7.8733 /_ -119.8   0.98819    13.800        2-3     13.637 /_  -89.8   0.98819
   -      3       7.8733 /_  120.2   0.98819    13.800        3-1     13.637 /_  150.2   0.98819
1 ....... 1        7.872 /_    0.2   0.98802    13.800        1-2     13.635 /_   30.2   0.98802
   -      2        7.872 /_ -119.8   0.98802    13.800        2-3     13.635 /_  -89.8   0.98802
   -      3        7.872 /_  120.2   0.98802    13.800        3-1     13.635 /_  150.2   0.98802
2 ....... 1       7.8713 /_    0.2   0.98793    13.800        1-2     13.633 /_   30.2   0.98793
   -      2       7.8713 /_ -119.8   0.98793    13.800        2-3     13.633 /_  -89.8   0.98793
   -      3       7.8713 /_  120.2   0.98793    13.800        3-1     13.633 /_  150.2   0.98793
6 ....... 1       7.8697 /_    0.2   0.98773    13.800        1-2     13.631 /_   30.2   0.98773
   -      2       7.8697 /_ -119.8   0.98773    13.800        2-3     13.631 /_  -89.8   0.98773
   -      3       7.8697 /_  120.2   0.98773    13.800        3-1     13.631 /_  150.2   0.98773
7 ....... 1       7.8691 /_    0.2   0.98766    13.800        1-2      13.63 /_   30.2   0.98766
   -      2       7.8691 /_ -119.8   0.98766    13.800        2-3      13.63 /_  -89.8   0.98766
   -      3       7.8691 /_  120.2   0.98766    13.800        3-1      13.63 /_  150.2   0.98766
5 ....... 1       7.8704 /_    0.2   0.98782    13.800        1-2     13.632 /_   30.2   0.98782
   -      2       7.8704 /_ -119.8   0.98782    13.800        2-3     13.632 /_  -89.8   0.98782
   -      3       7.8704 /_  120.2   0.98782    13.800        3-1     13.632 /_  150.2   0.98782
3 ....... 1       7.8716 /_    0.2   0.98798    13.800        1-2     13.634 /_   30.2   0.98798
   -      2       7.8716 /_ -119.8   0.98798    13.800        2-3     13.634 /_  -89.8   0.98798
   -      3       7.8716 /_  120.2   0.98798    13.800        3-1     13.634 /_  150.2   0.98798
4 ....... 1       7.8731 /_    0.3   0.98816    13.800        1-2     13.637 /_   30.3   0.98816
   -      2       7.8731 /_ -119.7   0.98816    13.800        2-3     13.637 /_  -89.7   0.98816
   -      3       7.8731 /_  120.3   0.98816    13.800        3-1     13.637 /_  150.3   0.98816
BT-TR1 .. 1      0.21211 /_  -32.0   0.96678     0.380        1-2    0.36738 /_   -2.0   0.96678
   -      2      0.21211 /_ -152.0   0.96678     0.380        2-3    0.36738 /_ -122.0   0.96678
   -      3      0.21211 /_   88.0   0.96678     0.380        3-1    0.36738 /_  118.0   0.96678
BT-TR2 .. 1      0.21208 /_  -32.0   0.96669     0.380        1-2    0.36734 /_   -2.0   0.96669
   -      2      0.21208 /_ -152.0   0.96669     0.380        2-3    0.36734 /_ -122.0   0.96669
   -      3      0.21208 /_   88.0   0.96669     0.380        3-1    0.36734 /_  118.0   0.96669
BT-TR3 .. 1       0.2121 /_  -32.0   0.96674     0.380        1-2    0.36736 /_   -2.0   0.96674
   -      2       0.2121 /_ -152.0   0.96674     0.380        2-3    0.36736 /_ -122.0   0.96674
   -      3       0.2121 /_   88.0   0.96674     0.380        3-1    0.36736 /_  118.0   0.96674
BT-TR4 .. 1      0.21214 /_  -32.0   0.96692     0.380        1-2    0.36743 /_   -2.0   0.96692
   -      2      0.21214 /_ -152.0   0.96692     0.380        2-3    0.36743 /_ -122.0   0.96692
   -      3      0.21214 /_   88.0   0.96692     0.380        3-1    0.36743 /_  118.0   0.96692
BT-TR5 .. 1      0.21206 /_  -32.0   0.96658     0.380        1-2     0.3673 /_   -2.0   0.96658
   -      2      0.21206 /_ -152.0   0.96658     0.380        2-3     0.3673 /_ -122.0   0.96658
   -      3      0.21206 /_   88.0   0.96658     0.380        3-1     0.3673 /_  118.0   0.96658
BT-TR6 .. 1      0.21204 /_  -32.0   0.96649     0.380        1-2    0.36727 /_   -2.0   0.96649
   -      2      0.21204 /_ -152.0   0.96649     0.380        2-3    0.36727 /_ -122.0   0.96649
   -      3      0.21204 /_   88.0   0.96649     0.380        3-1    0.36727 /_  118.0   0.96649
BT-TR7 .. 1      0.21203 /_  -32.0   0.96642     0.380        1-2    0.36724 /_   -2.0   0.96642
   -      2      0.21203 /_ -152.0   0.96642     0.380        2-3    0.36724 /_ -122.0   0.96642
   -      3      0.21203 /_   88.0   0.96642     0.380        3-1    0.36724 /_  118.0   0.96642
TR_ACOPL1 1      0.21727 /_    3.0   0.99031     0.380        1-2    0.37632 /_   33.0   0.99031
   -      2      0.21727 /_ -117.0   0.99031     0.380        2-3    0.37632 /_  -87.0   0.99031
   -      3      0.21727 /_  123.0   0.99031     0.380        3-1    0.37632 /_  153.0   0.99031
